data_CP2K
_symmetry_space_group_name_H-M    'P1'
_symmetry_Int_Tables_number       1
_symmetry_cell_setting            triclinic
loop_
_symmetry_equiv_pos_as_xyz
  x,y,z
_cell_length_a                      13.8053
_cell_length_b                      15.2769
_cell_length_c                      15.2808
_cell_angle_alpha                   62.2801
_cell_angle_beta                    81.3379
_cell_angle_gamma                   98.6496
loop_
_atom_site_label
_atom_site_type_symbol
_atom_site_fract_x
_atom_site_fract_y
_atom_site_fract_z
_atom_site_U_iso_or_equiv
_atom_site_adp_type
_atom_site_occupancy
  Zn1            Zn     0.44811     0.68429     0.57774     0.00000   Uiso        1.00
  Zn2            Zn     0.23614     0.57746     0.73819     0.00000   Uiso        1.00
  Zn3            Zn     0.10577     0.73799     0.68472     0.00000   Uiso        1.00
  Zn4            Zn     0.05357     0.31506     0.42258     0.00000   Uiso        1.00
  Zn5            Zn     0.26433     0.42262     0.26193     0.00000   Uiso        1.00
  Zn6            Zn     0.39563     0.26197     0.31519     0.00000   Uiso        1.00
   H7             H     0.32681     0.01871     0.53025     0.00000   Uiso        1.00
   H8             H     0.09169     0.52963     0.45117     0.00000   Uiso        1.00
   H9             H     0.31682     0.45131     0.01852     0.00000   Uiso        1.00
   H10            H     0.17486     0.98106     0.46847     0.00000   Uiso        1.00
   H11            H     0.40908     0.46858     0.55040     0.00000   Uiso        1.00
   H12            H     0.18334     0.55140     0.98170     0.00000   Uiso        1.00
   C13            C     0.32695     0.82465     0.61393     0.00000   Uiso        1.00
   C14            C     0.41849     0.91185     0.55364     0.00000   Uiso        1.00
   C15            C     0.01900     0.89971     0.53503     0.00000   Uiso        1.00
   C16            C     0.40379     0.01053     0.51708     0.00000   Uiso        1.00
   C17            C     0.34222     0.79330     0.41183     0.00000   Uiso        1.00
   C18            C     0.34046     0.76305     0.26882     0.00000   Uiso        1.00
   C19            C     0.20437     0.82876     0.32817     0.00000   Uiso        1.00
   C20            C     0.13304     0.61285     0.56219     0.00000   Uiso        1.00
   C21            C     0.19489     0.55317     0.53465     0.00000   Uiso        1.00
   C22            C     0.28623     0.53490     0.56525     0.00000   Uiso        1.00
   C23            C     0.16214     0.51657     0.47244     0.00000   Uiso        1.00
   C24            C     0.04685     0.41140     0.79469     0.00000   Uiso        1.00
   C25            C     0.47500     0.27005     0.96851     0.00000   Uiso        1.00
   C26            C     0.36737     0.32619     0.84433     0.00000   Uiso        1.00
   C27            C     0.41428     0.56146     0.82469     0.00000   Uiso        1.00
   C28            C     0.46201     0.53474     0.91205     0.00000   Uiso        1.00
   C29            C     0.06852     0.56574     0.90010     0.00000   Uiso        1.00
   C30            C     0.39783     0.47251     0.01063     0.00000   Uiso        1.00
   C31            C     0.44412     0.79529     0.79391     0.00000   Uiso        1.00
   C32            C     0.45922     0.96878     0.76345     0.00000   Uiso        1.00
   C33            C     0.28952     0.84555     0.82823     0.00000   Uiso        1.00
   C34            C     0.17454     0.17516     0.38550     0.00000   Uiso        1.00
   C35            C     0.08310     0.08779     0.44541     0.00000   Uiso        1.00
   C36            C     0.48254     0.09990     0.46417     0.00000   Uiso        1.00
   C37            C     0.09781     0.98908     0.48177     0.00000   Uiso        1.00
   C38            C     0.16087     0.20461     0.58840     0.00000   Uiso        1.00
   C39            C     0.16117     0.23480     0.73160     0.00000   Uiso        1.00
   C40            C     0.29762     0.16855     0.67371     0.00000   Uiso        1.00
   C41            C     0.36769     0.38536     0.43927     0.00000   Uiso        1.00
   C42            C     0.30590     0.44518     0.46676     0.00000   Uiso        1.00
   C43            C     0.21467     0.46371     0.43597     0.00000   Uiso        1.00
   C44            C     0.33869     0.48178     0.52900     0.00000   Uiso        1.00
   C45            C     0.45355     0.58705     0.20847     0.00000   Uiso        1.00
   C46            C     0.02210     0.72855     0.03643     0.00000   Uiso        1.00
   C47            C     0.13250     0.67380     0.16071     0.00000   Uiso        1.00
   C48            C     0.08604     0.43940     0.17542     0.00000   Uiso        1.00
   C49            C     0.03829     0.46693     0.08807     0.00000   Uiso        1.00
   C50            C     0.43177     0.43585     0.10008     0.00000   Uiso        1.00
   C51            C     0.10239     0.52958     0.98960     0.00000   Uiso        1.00
   C52            C     0.05614     0.20547     0.20438     0.00000   Uiso        1.00
   C53            C     0.04336     0.03306     0.23253     0.00000   Uiso        1.00
   C54            C     0.21213     0.15774     0.16885     0.00000   Uiso        1.00
   N55            N     0.29965     0.79891     0.33635     0.00000   Uiso        1.00
   N56            N     0.46703     0.33584     0.86514     0.00000   Uiso        1.00
   N57            N     0.39960     0.86572     0.79950     0.00000   Uiso        1.00
   N58            N     0.20273     0.19893     0.66435     0.00000   Uiso        1.00
   N59            N     0.03322     0.66305     0.13903     0.00000   Uiso        1.00
   N60            N     0.10192     0.13608     0.19803     0.00000   Uiso        1.00
   O61            O     0.33812     0.73331     0.65237     0.00000   Uiso        1.00
   O62            O     0.24115     0.84478     0.62634     0.00000   Uiso        1.00
   O63            O     0.04299     0.80944     0.56358     0.00000   Uiso        1.00
   O64            O     0.42200     0.76532     0.42545     0.00000   Uiso        1.00
   O65            O     0.16240     0.64980     0.61667     0.00000   Uiso        1.00
   O66            O     0.05388     0.62604     0.52900     0.00000   Uiso        1.00
   O67            O     0.32427     0.56351     0.62695     0.00000   Uiso        1.00
   O68            O     0.13333     0.42613     0.80895     0.00000   Uiso        1.00
   O69            O     0.47137     0.61413     0.73355     0.00000   Uiso        1.00
   O70            O     0.31850     0.52882     0.84458     0.00000   Uiso        1.00
   O71            O     0.13795     0.62767     0.81025     0.00000   Uiso        1.00
   O72            O     0.03772     0.80921     0.76534     0.00000   Uiso        1.00
   O73            O     0.16272     0.26629     0.34721     0.00000   Uiso        1.00
   O74            O     0.26061     0.15539     0.37335     0.00000   Uiso        1.00
   O75            O     0.45805     0.18984     0.43655     0.00000   Uiso        1.00
   O76            O     0.08107     0.23241     0.57444     0.00000   Uiso        1.00
   O77            O     0.33757     0.34748     0.38584     0.00000   Uiso        1.00
   O78            O     0.44753     0.37322     0.47148     0.00000   Uiso        1.00
   O79            O     0.17658     0.43582     0.37368     0.00000   Uiso        1.00
   O80            O     0.36801     0.57365     0.19162     0.00000   Uiso        1.00
   O81            O     0.02928     0.38354     0.26659     0.00000   Uiso        1.00
   O82            O     0.18144     0.47400     0.15590     0.00000   Uiso        1.00
   O83            O     0.36246     0.37335     0.19003     0.00000   Uiso        1.00
   O84            O     0.46232     0.19098     0.23189     0.00000   Uiso        1.00
   H85            H     0.29956     0.81555     0.46181     0.00000   Uiso        1.00
   H86            H     0.02896     0.46026     0.72230     0.00000   Uiso        1.00
   H87            H     0.38986     0.72318     0.81662     0.00000   Uiso        1.00
   H88            H     0.20413     0.18267     0.53847     0.00000   Uiso        1.00
   H89            H     0.47033     0.53710     0.28112     0.00000   Uiso        1.00
   H90            H     0.10966     0.27742     0.18323     0.00000   Uiso        1.00
   H91            H     0.35072     0.82137     0.18856     0.00000   Uiso        1.00
   H92            H     0.28881     0.69199     0.28525     0.00000   Uiso        1.00
   H93            H     0.41337     0.74761     0.28219     0.00000   Uiso        1.00
   H94            H     0.14543     0.76628     0.33681     0.00000   Uiso        1.00
   H95            H     0.21450     0.89741     0.25370     0.00000   Uiso        1.00
   H96            H     0.17812     0.84452     0.38960     0.00000   Uiso        1.00
   H97            H     0.55451     0.28586     0.97023     0.00000   Uiso        1.00
   H98            H     0.44748     0.18923     0.99114     0.00000   Uiso        1.00
   H99            H     0.43029     0.28609     1.02277     0.00000   Uiso        1.00
   H100           H     0.33975     0.25024     0.85340     0.00000   Uiso        1.00
   H101           H     0.37165     0.38533     0.76620     0.00000   Uiso        1.00
   H102           H     0.31327     0.33744     0.89642     0.00000   Uiso        1.00
   H103           H     0.44608     1.02308     0.69053     0.00000   Uiso        1.00
   H104           H     0.53951     0.96919     0.75148     0.00000   Uiso        1.00
   H105           H     0.43834     0.99224     0.82024     0.00000   Uiso        1.00
   H106           H     0.25433     0.76753     0.84693     0.00000   Uiso        1.00
   H107           H     0.26242     0.89812     0.76436     0.00000   Uiso        1.00
   H108           H     0.26575     0.85482     0.89489     0.00000   Uiso        1.00
   H109           H     0.14907     0.17608     0.81206     0.00000   Uiso        1.00
   H110           H     0.08912     0.25157     0.71656     0.00000   Uiso        1.00
   H111           H     0.21321     0.30520     0.71621     0.00000   Uiso        1.00
   H112           H     0.32400     0.15193     0.61295     0.00000   Uiso        1.00
   H113           H     0.28685     0.10023     0.74862     0.00000   Uiso        1.00
   H114           H     0.35675     0.23099     0.66490     0.00000   Uiso        1.00
   H115           H    -0.00419     0.68186     0.00346     0.00000   Uiso        1.00
   H116           H     0.09558     0.78081    -0.01224     0.00000   Uiso        1.00
   H117           H    -0.03312     0.77281     0.03876     0.00000   Uiso        1.00
   H118           H     0.18807     0.66417     0.10842     0.00000   Uiso        1.00
   H119           H     0.12777     0.61371     0.23856     0.00000   Uiso        1.00
   H120           H     0.15834     0.74906     0.15370     0.00000   Uiso        1.00
   H121           H     0.05974    -0.02220     0.30304     0.00000   Uiso        1.00
   H122           H     0.06200     0.01216     0.17330     0.00000   Uiso        1.00
   H123           H    -0.03728     0.03081     0.24852     0.00000   Uiso        1.00
   H124           H     0.23699     0.15257     0.09986     0.00000   Uiso        1.00
   H125           H     0.23951     0.10352     0.23133     0.00000   Uiso        1.00
   H126           H     0.24600     0.23466     0.15392     0.00000   Uiso        1.00
  Zn127          Zn     0.94811     0.68429     0.57774     0.00000   Uiso        1.00
  Zn128          Zn     0.73614     0.57746     0.73819     0.00000   Uiso        1.00
  Zn129          Zn     0.60577     0.73799     0.68472     0.00000   Uiso        1.00
  Zn130          Zn     0.55357     0.31506     0.42258     0.00000   Uiso        1.00
  Zn131          Zn     0.76433     0.42262     0.26193     0.00000   Uiso        1.00
  Zn132          Zn     0.89563     0.26197     0.31519     0.00000   Uiso        1.00
   H133           H     0.82681     0.01871     0.53025     0.00000   Uiso        1.00
   H134           H     0.59169     0.52963     0.45117     0.00000   Uiso        1.00
   H135           H     0.81682     0.45131     0.01852     0.00000   Uiso        1.00
   H136           H     0.67486     0.98106     0.46847     0.00000   Uiso        1.00
   H137           H     0.90908     0.46858     0.55040     0.00000   Uiso        1.00
   H138           H     0.68334     0.55140     0.98170     0.00000   Uiso        1.00
   C139           C     0.82695     0.82465     0.61393     0.00000   Uiso        1.00
   C140           C     0.91849     0.91185     0.55364     0.00000   Uiso        1.00
   C141           C     0.51900     0.89971     0.53503     0.00000   Uiso        1.00
   C142           C     0.90379     0.01053     0.51708     0.00000   Uiso        1.00
   C143           C     0.84222     0.79330     0.41183     0.00000   Uiso        1.00
   C144           C     0.84046     0.76305     0.26882     0.00000   Uiso        1.00
   C145           C     0.70437     0.82876     0.32817     0.00000   Uiso        1.00
   C146           C     0.63304     0.61285     0.56219     0.00000   Uiso        1.00
   C147           C     0.69489     0.55317     0.53465     0.00000   Uiso        1.00
   C148           C     0.78623     0.53490     0.56525     0.00000   Uiso        1.00
   C149           C     0.66214     0.51657     0.47244     0.00000   Uiso        1.00
   C150           C     0.54685     0.41140     0.79469     0.00000   Uiso        1.00
   C151           C     0.97500     0.27005     0.96851     0.00000   Uiso        1.00
   C152           C     0.86737     0.32619     0.84433     0.00000   Uiso        1.00
   C153           C     0.91428     0.56146     0.82469     0.00000   Uiso        1.00
   C154           C     0.96201     0.53474     0.91205     0.00000   Uiso        1.00
   C155           C     0.56852     0.56574     0.90010     0.00000   Uiso        1.00
   C156           C     0.89783     0.47251     0.01063     0.00000   Uiso        1.00
   C157           C     0.94412     0.79529     0.79391     0.00000   Uiso        1.00
   C158           C     0.95922     0.96878     0.76345     0.00000   Uiso        1.00
   C159           C     0.78952     0.84555     0.82823     0.00000   Uiso        1.00
   C160           C     0.67454     0.17516     0.38550     0.00000   Uiso        1.00
   C161           C     0.58310     0.08779     0.44541     0.00000   Uiso        1.00
   C162           C     0.98254     0.09990     0.46417     0.00000   Uiso        1.00
   C163           C     0.59781     0.98908     0.48177     0.00000   Uiso        1.00
   C164           C     0.66087     0.20461     0.58840     0.00000   Uiso        1.00
   C165           C     0.66117     0.23480     0.73160     0.00000   Uiso        1.00
   C166           C     0.79762     0.16855     0.67371     0.00000   Uiso        1.00
   C167           C     0.86769     0.38536     0.43927     0.00000   Uiso        1.00
   C168           C     0.80590     0.44518     0.46676     0.00000   Uiso        1.00
   C169           C     0.71467     0.46371     0.43597     0.00000   Uiso        1.00
   C170           C     0.83869     0.48178     0.52900     0.00000   Uiso        1.00
   C171           C     0.95355     0.58705     0.20847     0.00000   Uiso        1.00
   C172           C     0.52210     0.72855     0.03643     0.00000   Uiso        1.00
   C173           C     0.63250     0.67380     0.16071     0.00000   Uiso        1.00
   C174           C     0.58604     0.43940     0.17542     0.00000   Uiso        1.00
   C175           C     0.53829     0.46693     0.08807     0.00000   Uiso        1.00
   C176           C     0.93177     0.43585     0.10008     0.00000   Uiso        1.00
   C177           C     0.60239     0.52958     0.98960     0.00000   Uiso        1.00
   C178           C     0.55614     0.20547     0.20438     0.00000   Uiso        1.00
   C179           C     0.54336     0.03306     0.23253     0.00000   Uiso        1.00
   C180           C     0.71213     0.15774     0.16885     0.00000   Uiso        1.00
   N181           N     0.79965     0.79891     0.33635     0.00000   Uiso        1.00
   N182           N     0.96703     0.33584     0.86514     0.00000   Uiso        1.00
   N183           N     0.89960     0.86572     0.79950     0.00000   Uiso        1.00
   N184           N     0.70273     0.19893     0.66435     0.00000   Uiso        1.00
   N185           N     0.53322     0.66305     0.13903     0.00000   Uiso        1.00
   N186           N     0.60192     0.13608     0.19803     0.00000   Uiso        1.00
   O187           O     0.83812     0.73331     0.65237     0.00000   Uiso        1.00
   O188           O     0.74115     0.84478     0.62634     0.00000   Uiso        1.00
   O189           O     0.54299     0.80944     0.56358     0.00000   Uiso        1.00
   O190           O     0.92200     0.76532     0.42545     0.00000   Uiso        1.00
   O191           O     0.66240     0.64980     0.61667     0.00000   Uiso        1.00
   O192           O     0.55388     0.62604     0.52900     0.00000   Uiso        1.00
   O193           O     0.82427     0.56351     0.62695     0.00000   Uiso        1.00
   O194           O     0.63333     0.42613     0.80895     0.00000   Uiso        1.00
   O195           O     0.97137     0.61413     0.73355     0.00000   Uiso        1.00
   O196           O     0.81850     0.52882     0.84458     0.00000   Uiso        1.00
   O197           O     0.63795     0.62767     0.81025     0.00000   Uiso        1.00
   O198           O     0.53772     0.80921     0.76534     0.00000   Uiso        1.00
   O199           O     0.66272     0.26629     0.34721     0.00000   Uiso        1.00
   O200           O     0.76061     0.15539     0.37335     0.00000   Uiso        1.00
   O201           O     0.95805     0.18984     0.43655     0.00000   Uiso        1.00
   O202           O     0.58107     0.23241     0.57444     0.00000   Uiso        1.00
   O203           O     0.83757     0.34748     0.38584     0.00000   Uiso        1.00
   O204           O     0.94753     0.37322     0.47148     0.00000   Uiso        1.00
   O205           O     0.67658     0.43582     0.37368     0.00000   Uiso        1.00
   O206           O     0.86801     0.57365     0.19162     0.00000   Uiso        1.00
   O207           O     0.52928     0.38354     0.26659     0.00000   Uiso        1.00
   O208           O     0.68144     0.47400     0.15590     0.00000   Uiso        1.00
   O209           O     0.86246     0.37335     0.19003     0.00000   Uiso        1.00
   O210           O     0.96232     0.19098     0.23189     0.00000   Uiso        1.00
   H211           H     0.79956     0.81555     0.46181     0.00000   Uiso        1.00
   H212           H     0.52896     0.46026     0.72230     0.00000   Uiso        1.00
   H213           H     0.88986     0.72318     0.81662     0.00000   Uiso        1.00
   H214           H     0.70413     0.18267     0.53847     0.00000   Uiso        1.00
   H215           H     0.97033     0.53710     0.28112     0.00000   Uiso        1.00
   H216           H     0.60966     0.27742     0.18323     0.00000   Uiso        1.00
   H217           H     0.85072     0.82137     0.18856     0.00000   Uiso        1.00
   H218           H     0.78881     0.69199     0.28525     0.00000   Uiso        1.00
   H219           H     0.91337     0.74761     0.28219     0.00000   Uiso        1.00
   H220           H     0.64543     0.76628     0.33681     0.00000   Uiso        1.00
   H221           H     0.71450     0.89741     0.25370     0.00000   Uiso        1.00
   H222           H     0.67812     0.84452     0.38960     0.00000   Uiso        1.00
   H223           H     1.05451     0.28586     0.97023     0.00000   Uiso        1.00
   H224           H     0.94748     0.18923     0.99114     0.00000   Uiso        1.00
   H225           H     0.93029     0.28609     1.02277     0.00000   Uiso        1.00
   H226           H     0.83975     0.25024     0.85340     0.00000   Uiso        1.00
   H227           H     0.87165     0.38533     0.76620     0.00000   Uiso        1.00
   H228           H     0.81327     0.33744     0.89642     0.00000   Uiso        1.00
   H229           H     0.94608     1.02308     0.69053     0.00000   Uiso        1.00
   H230           H     1.03951     0.96919     0.75148     0.00000   Uiso        1.00
   H231           H     0.93834     0.99224     0.82024     0.00000   Uiso        1.00
   H232           H     0.75433     0.76753     0.84693     0.00000   Uiso        1.00
   H233           H     0.76242     0.89812     0.76436     0.00000   Uiso        1.00
   H234           H     0.76575     0.85482     0.89489     0.00000   Uiso        1.00
   H235           H     0.64907     0.17608     0.81206     0.00000   Uiso        1.00
   H236           H     0.58912     0.25157     0.71656     0.00000   Uiso        1.00
   H237           H     0.71321     0.30520     0.71621     0.00000   Uiso        1.00
   H238           H     0.82400     0.15193     0.61295     0.00000   Uiso        1.00
   H239           H     0.78685     0.10023     0.74862     0.00000   Uiso        1.00
   H240           H     0.85675     0.23099     0.66490     0.00000   Uiso        1.00
   H241           H     0.49581     0.68186     0.00346     0.00000   Uiso        1.00
   H242           H     0.59558     0.78081    -0.01224     0.00000   Uiso        1.00
   H243           H     0.46688     0.77281     0.03876     0.00000   Uiso        1.00
   H244           H     0.68807     0.66417     0.10842     0.00000   Uiso        1.00
   H245           H     0.62777     0.61371     0.23856     0.00000   Uiso        1.00
   H246           H     0.65834     0.74906     0.15370     0.00000   Uiso        1.00
   H247           H     0.55974    -0.02220     0.30304     0.00000   Uiso        1.00
   H248           H     0.56200     0.01216     0.17330     0.00000   Uiso        1.00
   H249           H     0.46272     0.03081     0.24852     0.00000   Uiso        1.00
   H250           H     0.73699     0.15257     0.09986     0.00000   Uiso        1.00
   H251           H     0.73951     0.10352     0.23133     0.00000   Uiso        1.00
   H252           H     0.74600     0.23466     0.15392     0.00000   Uiso        1.00


